; Filename: Net5.inp
; WNTR: 0.1.5
; Created: 2018-11-30 08:49:52
[TITLE]
EPANET Example Network 3, updated to include longer duration
Example showing how the percent of Lake water in a dual-source
system changes over time.

[JUNCTIONS]
;ID                      Elevation       Demand Pattern                 
 10                                 0              30                            ;
 15                                 0              25                            ;
 20                                 0              20                            ;
 35                                 0              25                            ;
 40                                 0              20                            ;
 50                                 0              30                            ;
 101                                0              25                            ;
 103                                0              20                            ;
 105                                0              25                            ;
 107                                0              30                            ;
 109                                0              40                            ;
 111                                0              25                            ;
 113                                0              20                            ;
 115                                0              32                            ;
 117                                0              24                            ;
 119                                0              30                            ;
 120                                0              23                            ;
 121                                0              30                            ;
 123                                0              25                            ;
 125                                0              36                            ;
 127                                0              17                            ;
 129                                0              28                            ;
 131                                0              35                            ;
 139                                0              26                            ;
 141                                0              40                            ;
 143                                0              36                            ;
 145                                0              27                            ;
 147                                0              34                            ;
 149                                0              27                            ;
 151                                0              26                            ;
 153                                0              44                            ;
 157                                0              41                            ;
 159                                0              41                            ;
 161                                0              30                            ;
 163                                0              36                            ;
 164                                0              36                            ;
 166                                0              24                            ;
 167                                0              26                            ;
 169                                0              30                            ;
 171                                0              40                            ;
 173                                0              30                            ;
 177                                0              35                            ;
 179                                0              35                            ;
 181                                0              26                            ;
 183                                0              35                            ;
 184                                0              40                            ;
 185                                0              25                            ;
 187                                0              36                            ;
 189                                0              26                            ;
 191                                0              40                            ;
 193                                0              29                            ;
 195                                0              34                            ;
 197                                0              34                            ;
 199                                0              35                            ;
 201                                0              44                            ;
 203                                0              36                            ;
 204                                0              34                            ;
 205                                0              50                            ;
 206                                0              24                            ;
 207                                0              34                            ;
 208                                0              58                            ;
 209                                0              54                            ;
 211                                0              45                            ;
 213                                0              35                            ;
 215                                0              26                            ;
 217                                0              24                            ;
 219                                0              41                            ;
 225                                0              22                            ;
 229                                0              64                            ;
 231                                0              26                            ;
 237                                0              45                            ;
 239                                0              44                            ;
 241                                0              60                            ;
 243                                0              34                            ;
 247                                0              35                            ;
 249                                0              47                            ;
 251                                0              49                            ;
 253                                0              54                            ;
 255                                0              40                            ;
 257                                0              36                            ;
 259                                0              42                            ;
 261                                0              36                            ;
 263                                0              41                            ;
 265                                0              47                            ;
 267                                0              35                            ;
 269                                0              38                            ;
 271                                0              45                            ;
 273                                0              26                            ;
 275                                0              56                            ;
 3                                  0              35                            ;
 4                                  0              45                            ;
 5                                  0              32                            ;
 6                                  0              36                            ;
 7                                  0              42                            ;
 8                                  0              50                            ;
 9                                  0              36                            ;
 11                                 0              56                            ;
 12                                 0              46                            ;
 13                                 0              58                            ;
 14                                 0              52                            ;
 16                                 0              43                            ;
 17                                 0              36                            ;
 18                                 0              54                            ;
 19                                 0              36                            ;
 21                                 0              50                            ;
 22                                 0              31                            ;
 23                                 0            38.5                            ;

[RESERVOIRS]
;ID                                   Head                  Pattern
 1                               1800                            ;
 2                                  0                            ;

[TANKS]
;ID                              Elevation           Init Level            Min Level            Max Level             Diameter           Min Volume Volume Curve        

[PIPES]
;ID                   Node1                Node2                              Length             Diameter            Roughness           Minor Loss               Status
 101                  10                   101                             1420             400             110               0                 Open   ;
 103                  101                  103                             1350             400             130               0                 Open   ;
 105                  101                  105                             2540             400             130               0                 Open   ;
 107                  105                  107                             1470             400             130               0                 Open   ;
 109                  103                  109                             2940             400             130               0                 Open   ;
 111                  109                  111                             2000             400             130               0                 Open   ;
 112                  115                  111                             1160             400             130               0                 Open   ;
 113                  111                  113                             1680             400             130               0                 Open   ;
 114                  115                  113                             2000             400             130               0                 Open   ;
 115                  107                  115                             1950             400             130               0                 Open   ;
 116                  113                  193                             1660             400             130               0                 Open   ;
 117                  263                  105                             2725             400             130               0                 Open   ;
 119                  115                  117                             2180             400             130               0                 Open   ;
 120                  119                  120                              730             400             130               0                 Open   ;
 121                  120                  117                             1870             400             130               0                 Open   ;
 122                  121                  120                             2050             400             130               0                 Open   ;
 123                  121                  119                             2000             400             141               0                 Open   ;
 125                  123                  121                             1500             400             141               0                 Open   ;
 129                  121                  125                              930             400             130               0                 Open   ;
 131                  125                  127                             3240             400             130               0                 Open   ;
 133                  20                   127                              785             400             130               0                 Open   ;
 135                  127                  129                              900             400             130               0                 Open   ;
 137                  129                  131                             6480             400             130               0                 Open   ;
 145                  129                  139                             2750             400             130               0                 Open   ;
 147                  139                  141                             2050             400             130               0                 Open   ;
 149                  143                  141                             1400             400             130               0                 Open   ;
 151                  15                   143                             1650             400             130               0                 Open   ;
 153                  145                  141                             3510             400             130               0                 Open   ;
 155                  147                  145                             2200             400             130               0                 Open   ;
 159                  147                  149                              880             400             130               0                 Open   ;
 161                  149                  151                             1020             400             130               0                 Open   ;
 163                  151                  153                             1170             400             130               0                 Open   ;
 169                  125                  153                             4560             400             130               0                 Open   ;
 171                  119                  151                             3460             400             130               0                 Open   ;
 173                  119                  157                             2080             400             141               0                 Open   ;
 175                  157                  159                             2910             400             141               0                 Open   ;
 177                  159                  161                             2000             400             141               0                 Open   ;
 179                  161                  163                             2500             300             141               0                 Open   ;
 180                  163                  164                              150             400             130               0                 Open   ;
 181                  164                  166                              490             400             130               0                 Open   ;
 183                  265                  169                              590             400             141               0                 Open   ;
 185                  167                  169                              600             400             130               0                 Open   ;
 186                  187                  204                              999             400             130               0                 Open   ;
 187                  169                  171                             1270             400             141               0                 Open   ;
 189                  171                  173                              500             400             400               0                 Open   ;
 191                  271                  171                              760             400             130               0                 Open   ;
 193                  35                   181                              300             400             130               0                 Open   ;
 195                  181                  177                              300             400             130               0                 Open   ;
 197                  177                  179                              300             400             130               0                 Open   ;
 199                  179                  183                              210             400             130               0                 Open   ;
 201                  40                   179                             1190             400             130               0                 Open   ;
 202                  185                  184                              999             400             130               0                 Open   ;
 203                  183                  185                              510             400             130               0                 Open   ;
 204                  184                  205                             4530             400             130               0                 Open   ;
 205                  204                  185                             1325             400             130               0                 Open   ;
 207                  189                  183                             1350             400             130               0                 Open   ;
 209                  189                  187                              500             400             130               0                 Open   ;
 211                  169                  269                              646             400             130               0                 Open   ;
 213                  191                  187                             2560             400             130               0                 Open   ;
 215                  267                  189                             1230             400             130               0                 Open   ;
 217                  191                  193                              520             400             130               0                 Open   ;
 219                  193                  195                              360             400             130               0                 Open   ;
 221                  161                  195                             2300             400             130               0                 Open   ;
 223                  197                  191                             1150             400             130               0                 Open   ;
 225                  111                  197                             2790             400             130               0                 Open   ;
 229                  173                  199                             4000             400             141               0                 Open   ;
 231                  199                  201                              630             400             141               0                 Open   ;
 233                  201                  203                              120             400             130               0                 Open   ;
 235                  199                  273                              725             400             130               0                 Open   ;
 237                  205                  207                             1200             400             130               0                 Open   ;
 238                  207                  206                              450             400             130               0                 Open   ;
 239                  275                  207                             1430             400             130               0                 Open   ;
 240                  206                  208                              510             400             130               0                 Open   ;
 241                  208                  209                              885             400             130               0                 Open   ;
 243                  209                  211                             1210             400             130               0                 Open   ;
 245                  211                  213                              990             400             130               0                 Open   ;
 247                  213                  215                             4285             400             130               0                 Open   ;
 249                  215                  217                             1660             400             130               0                 Open   ;
 251                  217                  219                             2050             400             130               0                 Open   ;
 257                  217                  225                             1560             400             130               0                 Open   ;
 261                  213                  229                             2200             400             130               0                 Open   ;
 263                  229                  231                             1960             400             130               0                 Open   ;
 269                  211                  237                             2080             400             130               0                 Open   ;
 271                  237                  229                              790             400             130               0                 Open   ;
 273                  237                  239                              510             400             130               0                 Open   ;
 275                  239                  241                              350             400             130               0                 Open   ;
 277                  241                  243                             2200             400             130               0                 Open   ;
 281                  241                  247                              445             400             130               0                 Open   ;
 283                  239                  249                              430             400             130               0                 Open   ;
 285                  247                  249                              100             400             130               0                 Open   ;
 287                  247                  255                             1390             400             130               0                 Open   ;
 289                  50                   255                              925             400             130               0                 Open   ;
 291                  255                  253                             1100             400             130               0                 Open   ;
 293                  255                  251                             1100             400             130               0                 Open   ;
 295                  249                  251                             1450             400             130               0                 Open   ;
 297                  120                  257                              645             400             130               0                 Open   ;
 299                  257                  259                              350             400             130               0                 Open   ;
 301                  259                  263                             1400             400             130               0                 Open   ;
 303                  257                  261                             1400             400             130               0                 Open   ;
 305                  117                  261                              645             400             130               0                 Open   ;
 307                  261                  263                              350             400             130               0                 Open   ;
 309                  265                  267                             1580             400             130               0                 Open   ;
 311                  193                  267                             1170             400             130               0                 Open   ;
 313                  269                  189                              646             400             130               0                 Open   ;
 315                  181                  271                              260             400             130               0                 Open   ;
 317                  273                  275                             2230             400             130               0                 Open   ;
 319                  273                  205                              645             400             130               0                 Open   ;
 321                  163                  265                             1200             400             141               0                 Open   ;
 323                  201                  275                              300             400             130               0                 Open   ;
 325                  269                  271                             1290             400             130               0                 Open   ;
 102                  10                   1                               1000             400             100               0                 Open   ;
 1                    157                  3                               1000             400             100               0                 Open   ;
 2                    147                  4                               1000             400             100               0                 Open   ;
 4                    4                    3                               1000             400             100               0                 Open   ;
 5                    5                    4                               1000             350             100               0                 Open   ;
 6                    5                    171                             1000             350             100               0                 Open   ;
 7                    4                    6                               1000             300             100               0                 Open   ;
 8                    145                  6                               1000             410             100               0                 Open   ;
 9                    7                    5                               1000             400             100               0                 Open   ;
 10                   7                    199                             1000             300             100               0                 Open   ;
 11                   8                    6                               1000             400             100               0                 Open   ;
 12                   7                    8                               1000             350             100               0                 Open   ;
 13                   145                  11                              1000             400             100               0                 Open   ;
 14                   6                    9                               1000             300             100               0                 Open   ;
 15                   143                  11                              1000             400             100               0                 Open   ;
 16                   11                   9                               1000             350             100               0                 Open   ;
 17                   9                    8                               1000             350             100               0                 Open   ;
 18                   8                    12                              1000             350             100               0                 Open   ;
 19                   9                    13                              1000             400             100               0                 Open   ;
 20                   11                   14                              1000             400             100               0                 Open   ;
 21                   143                  16                              1000             350             100               0                 Open   ;
 22                   203                  12                              1000             400             100               0                 Open   ;